-------------------------------------------------------
          Amber 22 PMEMD                              2022
          -------------------------------------------------------

  [-O]verwriting output

File Assignments:

 Here is the input file:

running sampling run  on  NVT trajectory
 &cntrl
   igb = 0, imin = 0, ntx = 5, irest = 1,
   ntb = 1, cut = 9,
   ntpr = 1000, ntwx = 1000, ntwr = 1000,
   nstlim = 150000, dt = 0.001,
   ntc = 2, ntf = 2, iwrap = 1,
   ntt = 3, gamma_ln=1.0,
   tempi = 300.0, temp0 = 300.0,
   tautp = 0.5, ig = -1, vlimit = 10.0,
   nmropt = 0,
   ipol   = 0,
   ntr = 1,
   restraint_wt = 100,
   restraintmask = ':1-2',
 /

Note: ig = -1. Setting random seed to   483954 based on wallclock time in
      microseconds.

--------------------------------------------------------------------------------
   1.  RESOURCE   USE:
--------------------------------------------------------------------------------

 getting box info from netcdf restart file
 NATOM  =   12920 NTYPES =       2 NBONH =    2736 MBONA  =   13908
 NTHETH =    5472 MTHETA =   25080 NPHIH =   11704 MPHIA  =   54112
 NHPARM =       0 NPARM  =       0 NNB   =   89756 NRES   =     152
 NBONA  =   13908 NTHETA =   25080 NPHIA =   54112 NUMBND =       7
 NUMANG =      19 NPTRA  =       3 NATYP =       4 NPHB   =       0
 IFBOX  =       1 NMXRS  =     100 IFCAP =       0 NEXTRA =       0
 NCOPY  =       0

     BOX TYPE: RECTILINEAR

--------------------------------------------------------------------------------
   2.  CONTROL  DATA  FOR  THE  RUN
--------------------------------------------------------------------------------

default_name

General flags:
     imin    =       0, nmropt  =       0

Nature and format of input:
     ntx     =       5, irest   =       1, ntrx    =       1

Nature and format of output:
     ntxo    =       2, ntpr    =    1000, ntrx    =       1, ntwr    =    1000
     iwrap   =       1, ntwx    =    1000, ntwv    =       0, ntwe    =       0
     ioutfm  =       1, ntwprt  =       0, idecomp =       0, rbornstat=      0

Potential function:
     ntf     =       2, ntb     =       1, igb     =       0, nsnb    =      25
     ipol    =       0, gbsa    =       0, iesp    =       0
     dielc   =   1.00000, cut     =   9.00000, intdiel =   1.00000

Frozen or restrained atoms:
     ibelly  =       0, ntr     =       1
     restraint_wt = 100.00000

Molecular dynamics:
     nstlim  =    150000, nscm    =         0, nrespa  =         1
     t       =   0.00000, dt      =   0.00100, vlimit  =  10.00000

Langevin dynamics temperature regulation:
     ig      =  483954
     temp0   = 300.00000, tempi   = 300.00000, gamma_ln=   1.00000

SHAKE:
     ntc     =       2, jfastw  =       0
     tol     =   0.00001

Ewald parameters:
     verbose =       0, ew_type =       0, nbflag  =       1, use_pme =       1
     vdwmeth =       1, eedmeth =       1, netfrc  =       1
     Box X =   54.545   Box Y =   53.260   Box Z =   54.602
     Alpha =   90.000   Beta  =   90.000   Gamma =   90.000
     NFFT1 =   56       NFFT2 =   56       NFFT3 =   56
     Cutoff=    9.000   Tol   =0.100E-04
     Ewald Coefficient =  0.30768
     Interpolation order =    4

    LOADING THE CONSTRAINED ATOMS AS GROUPS

   5.  REFERENCE ATOM COORDINATES

  default_name
     Mask :1-2; matches   170 atoms

--------------------------------------------------------------------------------
   3.  ATOMIC COORDINATES AND VELOCITIES
--------------------------------------------------------------------------------

default_name
 begin time read from input coords =  2250.000 ps

 Number of triangulated 3-point waters found:        0

     Sum of charges from parm topology file =  -0.00060177
     Forcing neutrality...

--------------------------------------------------------------------------------
   4.  RESULTS
 NSTEP =     1000   TIME(PS) =    2251.000  TEMP(K) =   300.16  PRESS =     0.0
 Etot   =     99271.5088  EKtot   =     10743.5586  EPtot      =     88527.9502
 BOND   =      5179.0648  ANGLE   =     25104.5692  DIHED      =     56205.2638
 1-4 NB =     10691.1869  1-4 EEL =      5293.2729  VDWAALS    =    -11855.9300
 EELEC  =     -2158.7858  EHBOND  =         0.0000  RESTRAINT  =        69.3084
 EAMBER (non-restraint)  =     88458.6418
 ------------------------------------------------------------------------------

      A V E R A G E S   O V E R     150 S T E P S

 NSTEP =   150000   TIME(PS) =    2400.000  TEMP(K) =   299.65  PRESS =     0.0
 Etot   =     99289.8078  EKtot   =     10725.3506  EPtot      =     88564.4573
 BOND   =      5132.0001  ANGLE   =     25064.3906  DIHED      =     56283.2965
 1-4 NB =     10674.1815  1-4 EEL =      5297.8307  VDWAALS    =    -11800.8683
 EELEC  =     -2158.5581  EHBOND  =         0.0000  RESTRAINT  =        72.1843
 EAMBER (non-restraint)  =     88492.2729
 ------------------------------------------------------------------------------

      R M S  F L U C T U A T I O N S

 NSTEP =   150000   TIME(PS) =    2400.000  TEMP(K) =     2.19  PRESS =     0.0
 Etot   =       106.0633  EKtot   =        78.2322  EPtot      =        74.3425
 BOND   =        49.4585  ANGLE   =        67.6201  DIHED      =        59.7178
 1-4 NB =        29.1420  1-4 EEL =         5.0638  VDWAALS    =        26.7635
 EELEC  =         6.2833  EHBOND  =         0.0000  RESTRAINT  =         5.2104
 EAMBER (non-restraint)  =        69.1321
 ------------------------------------------------------------------------------
