-------------------------------------------------------
          Amber 22 PMEMD                              2022
          -------------------------------------------------------

  [-O]verwriting output

File Assignments:

 Here is the input file:

running trajectory NVE relaxation for  5e4 steps
 &cntrl
   igb = 0, imin = 0, ntx = 5, irest = 1,
   ntb = 1, cut = 9,
   ntpr = 1000, ntwx = 1000, ntwr = 1000,
   nstlim = 50000, dt = 0.001,
   ntc = 2, ntf = 2, iwrap = 1,
   ntt = 0,
   ioutfm=1,
   nmropt = 0,
   ipol   = 0,
   ntr = 1,
   restraint_wt = 100,
   restraintmask = ':1-2',
 /

Note: ig = -1. Setting random seed to   492621 based on wallclock time in
      microseconds.

--------------------------------------------------------------------------------
   1.  RESOURCE   USE:
--------------------------------------------------------------------------------

 getting box info from netcdf restart file
 NATOM  =   12920 NTYPES =       2 NBONH =    2736 MBONA  =   13908
 NTHETH =    5472 MTHETA =   25080 NPHIH =   11704 MPHIA  =   54112
 NHPARM =       0 NPARM  =       0 NNB   =   89756 NRES   =     152
 NBONA  =   13908 NTHETA =   25080 NPHIA =   54112 NUMBND =       7
 NUMANG =      19 NPTRA  =       3 NATYP =       4 NPHB   =       0
 IFBOX  =       1 NMXRS  =     100 IFCAP =       0 NEXTRA =       0
 NCOPY  =       0

     BOX TYPE: RECTILINEAR

--------------------------------------------------------------------------------
   2.  CONTROL  DATA  FOR  THE  RUN
--------------------------------------------------------------------------------

default_name

General flags:
     imin    =       0, nmropt  =       0

Nature and format of input:
     ntx     =       5, irest   =       1, ntrx    =       1

Nature and format of output:
     ntxo    =       2, ntpr    =    1000, ntrx    =       1, ntwr    =    1000
     iwrap   =       1, ntwx    =    1000, ntwv    =       0, ntwe    =       0
     ioutfm  =       1, ntwprt  =       0, idecomp =       0, rbornstat=      0

Potential function:
     ntf     =       2, ntb     =       1, igb     =       0, nsnb    =      25
     ipol    =       0, gbsa    =       0, iesp    =       0
     dielc   =   1.00000, cut     =   9.00000, intdiel =   1.00000

Frozen or restrained atoms:
     ibelly  =       0, ntr     =       1
     restraint_wt = 100.00000

Molecular dynamics:
     nstlim  =     50000, nscm    =         0, nrespa  =         1
     t       =   0.00000, dt      =   0.00100, vlimit  =  -1.00000

SHAKE:
     ntc     =       2, jfastw  =       0
     tol     =   0.00001

Ewald parameters:
     verbose =       0, ew_type =       0, nbflag  =       1, use_pme =       1
     vdwmeth =       1, eedmeth =       1, netfrc  =       1
     Box X =   54.545   Box Y =   53.260   Box Z =   54.602
     Alpha =   90.000   Beta  =   90.000   Gamma =   90.000
     NFFT1 =   56       NFFT2 =   56       NFFT3 =   56
     Cutoff=    9.000   Tol   =0.100E-04
     Ewald Coefficient =  0.30768
     Interpolation order =    4

    LOADING THE CONSTRAINED ATOMS AS GROUPS

   5.  REFERENCE ATOM COORDINATES

  default_name
     Mask :1-2; matches   170 atoms

--------------------------------------------------------------------------------
   3.  ATOMIC COORDINATES AND VELOCITIES
--------------------------------------------------------------------------------

default_name
 begin time read from input coords =  2400.000 ps

 Number of triangulated 3-point waters found:        0

     Sum of charges from parm topology file =  -0.00060177
     Forcing neutrality...

--------------------------------------------------------------------------------
   4.  RESULTS
 NSTEP =     1000   TIME(PS) =    2401.000  TEMP(K) =   300.35  PRESS =     0.0
 Etot   =     99157.9226  EKtot   =     10750.5918  EPtot      =     88407.3308
 BOND   =      4986.1830  ANGLE   =     25150.8131  DIHED      =     56206.7350
 1-4 NB =     10694.6261  1-4 EEL =      5307.7978  VDWAALS    =    -11829.5628
 EELEC  =     -2161.7260  EHBOND  =         0.0000  RESTRAINT  =        52.4646
 EAMBER (non-restraint)  =     88354.8662
 ------------------------------------------------------------------------------

      A V E R A G E S   O V E R      50 S T E P S

 NSTEP =    50000   TIME(PS) =    2450.000  TEMP(K) =   298.58  PRESS =     0.0
 Etot   =     99157.2475  EKtot   =     10687.0114  EPtot      =     88470.2361
 BOND   =      5095.5309  ANGLE   =     25065.0717  DIHED      =     56247.5518
 1-4 NB =     10669.6955  1-4 EEL =      5299.7140  VDWAALS    =    -11804.7153
 EELEC  =     -2159.9331  EHBOND  =         0.0000  RESTRAINT  =        57.3207
 EAMBER (non-restraint)  =     88412.9154
 ------------------------------------------------------------------------------

      R M S  F L U C T U A T I O N S

 NSTEP =    50000   TIME(PS) =    2450.000  TEMP(K) =     1.79  PRESS =     0.0
 Etot   =         4.0121  EKtot   =        63.9138  EPtot      =        64.4479
 BOND   =        50.6583  ANGLE   =        64.6167  DIHED      =        51.4999
 1-4 NB =        27.3775  1-4 EEL =         4.8941  VDWAALS    =        21.1625
 EELEC  =         5.6596  EHBOND  =         0.0000  RESTRAINT  =         4.8394
 EAMBER (non-restraint)  =        59.6085
 ------------------------------------------------------------------------------
