-------------------------------------------------------
          Amber 22 PMEMD                              2022
          -------------------------------------------------------

  [-O]verwriting output

File Assignments:

 Here is the input file:

running a equilibriation run  on  NVT trajectory
 &cntrl
   igb = 0, imin = 0, ntx = 5, irest = 1,
   ntb = 1, cut = 9,
   ntpr = 1000, ntwx = 1000, ntwr = 20000,
   nstlim = 1000000, dt = 0.001,
   ntc = 2, ntf = 2, iwrap = 1,
   ntt = 3, gamma_ln=1.0,
   tempi = 300.0, temp0 = 300.0,
   tautp = 0.5, ig = -1, vlimit = 10.0,
   nmropt = 0,
   ipol   = 0,
   restraintmask = ':1-2',
 /

Note: ig = -1. Setting random seed to   780598 based on wallclock time in
      microseconds.

--------------------------------------------------------------------------------
   1.  RESOURCE   USE:
--------------------------------------------------------------------------------

 getting box info from netcdf restart file
 NATOM  =   12920 NTYPES =       2 NBONH =    2736 MBONA  =   13908
 NTHETH =    5472 MTHETA =   25080 NPHIH =   11704 MPHIA  =   54112
 NHPARM =       0 NPARM  =       0 NNB   =   89756 NRES   =     152
 NBONA  =   13908 NTHETA =   25080 NPHIA =   54112 NUMBND =       7
 NUMANG =      19 NPTRA  =       3 NATYP =       4 NPHB   =       0
 IFBOX  =       1 NMXRS  =     100 IFCAP =       0 NEXTRA =       0
 NCOPY  =       0

     BOX TYPE: RECTILINEAR

--------------------------------------------------------------------------------
   2.  CONTROL  DATA  FOR  THE  RUN
--------------------------------------------------------------------------------

default_name

General flags:
     imin    =       0, nmropt  =       0

Nature and format of input:
     ntx     =       5, irest   =       1, ntrx    =       1

Nature and format of output:
     ntxo    =       2, ntpr    =    1000, ntrx    =       1, ntwr    =   20000
     iwrap   =       1, ntwx    =    1000, ntwv    =       0, ntwe    =       0
     ioutfm  =       1, ntwprt  =       0, idecomp =       0, rbornstat=      0

Potential function:
     ntf     =       2, ntb     =       1, igb     =       0, nsnb    =      25
     ipol    =       0, gbsa    =       0, iesp    =       0
     dielc   =   1.00000, cut     =   9.00000, intdiel =   1.00000

Frozen or restrained atoms:
     ibelly  =       0, ntr     =       0

Molecular dynamics:
     nstlim  =   1000000, nscm    =      1000, nrespa  =         1
     t       =   0.00000, dt      =   0.00100, vlimit  =  10.00000

Langevin dynamics temperature regulation:
     ig      =  780598
     temp0   = 300.00000, tempi   = 300.00000, gamma_ln=   1.00000

SHAKE:
     ntc     =       2, jfastw  =       0
     tol     =   0.00001

Ewald parameters:
     verbose =       0, ew_type =       0, nbflag  =       1, use_pme =       1
     vdwmeth =       1, eedmeth =       1, netfrc  =       1
     Box X =   54.545   Box Y =   53.260   Box Z =   54.602
     Alpha =   90.000   Beta  =   90.000   Gamma =   90.000
     NFFT1 =   56       NFFT2 =   56       NFFT3 =   56
     Cutoff=    9.000   Tol   =0.100E-04
     Ewald Coefficient =  0.30768
     Interpolation order =    4

--------------------------------------------------------------------------------
   3.  ATOMIC COORDINATES AND VELOCITIES
--------------------------------------------------------------------------------

default_name
 begin time read from input coords =  1250.000 ps

 Number of triangulated 3-point waters found:        0

     Sum of charges from parm topology file =  -0.00060177
     Forcing neutrality...

--------------------------------------------------------------------------------
   4.  RESULTS
 NSTEP =     1000   TIME(PS) =    1251.000  TEMP(K) =   294.89  PRESS =     0.0
 Etot   =     99066.7836  EKtot   =     10555.1807  EPtot      =     88511.6030
 BOND   =      5179.1757  ANGLE   =     25014.5646  DIHED      =     56284.9822
 1-4 NB =     10668.0359  1-4 EEL =      5299.2043  VDWAALS    =    -11784.0469
 EELEC  =     -2150.3129  EHBOND  =         0.0000  RESTRAINT  =         0.0000
 ------------------------------------------------------------------------------

      A V E R A G E S   O V E R    1000 S T E P S

 NSTEP =  1000000   TIME(PS) =    2250.000  TEMP(K) =   300.09  PRESS =     0.0
 Etot   =     99247.6476  EKtot   =     10741.2723  EPtot      =     88506.3754
 BOND   =      5145.1479  ANGLE   =     25063.9474  DIHED      =     56293.4233
 1-4 NB =     10673.4952  1-4 EEL =      5298.6508  VDWAALS    =    -11803.1740
 EELEC  =     -2165.1153  EHBOND  =         0.0000  RESTRAINT  =         0.0000
 ------------------------------------------------------------------------------

      R M S  F L U C T U A T I O N S

 NSTEP =  1000000   TIME(PS) =    2250.000  TEMP(K) =     2.21  PRESS =     0.0
 Etot   =       114.8510  EKtot   =        79.2759  EPtot      =        78.1543
 BOND   =        56.9799  ANGLE   =        64.8544  DIHED      =        50.2512
 1-4 NB =        29.9314  1-4 EEL =         5.3837  VDWAALS    =        26.3546
 EELEC  =         7.4276  EHBOND  =         0.0000  RESTRAINT  =         0.0000
 ------------------------------------------------------------------------------
