-------------------------------------------------------
          Amber 22 PMEMD                              2022
          -------------------------------------------------------

  [-O]verwriting output

File Assignments:

 Here is the input file:

NPT eq
 &cntrl
   igb = 0, imin = 0, ntx = 5, irest = 1,
   ntb = 2,
   cut = 9,
   ntpr = 1000, ntwx = 1000, ntwr = 1000,
   nstlim = 1200000,
   dt = 0.001,
   ntc = 2, ntf = 2, iwrap = 1,
   ntt = 3, gamma_ln=1.0,
   tempi = 300.0, temp0 = 300.0,
   ntp = 1, tautp = 0.5,
   ig = -1, vlimit = 10.0,
   nmropt = 0,
   ipol   = 0,
   restraintmask = ':1-2',
 /

Note: ig = -1. Setting random seed to   218058 based on wallclock time in
      microseconds and disabling the synchronization of random numbers
      between tasks to improve performance.

--------------------------------------------------------------------------------
   1.  RESOURCE   USE:
--------------------------------------------------------------------------------

 getting box info from netcdf restart file
 NATOM  =   12920 NTYPES =       2 NBONH =    2736 MBONA  =   13908
 NTHETH =    5472 MTHETA =   25080 NPHIH =   11704 MPHIA  =   54112
 NHPARM =       0 NPARM  =       0 NNB   =   89756 NRES   =     152
 NBONA  =   13908 NTHETA =   25080 NPHIA =   54112 NUMBND =       7
 NUMANG =      19 NPTRA  =       3 NATYP =       4 NPHB   =       0
 IFBOX  =       1 NMXRS  =     100 IFCAP =       0 NEXTRA =       0
 NCOPY  =       0

     BOX TYPE: RECTILINEAR

--------------------------------------------------------------------------------
   2.  CONTROL  DATA  FOR  THE  RUN
--------------------------------------------------------------------------------

default_name

General flags:
     imin    =       0, nmropt  =       0

Nature and format of input:
     ntx     =       5, irest   =       1, ntrx    =       1

Nature and format of output:
     ntxo    =       2, ntpr    =    1000, ntrx    =       1, ntwr    =    1000
     iwrap   =       1, ntwx    =    1000, ntwv    =       0, ntwe    =       0
     ioutfm  =       1, ntwprt  =       0, idecomp =       0, rbornstat=      0

Potential function:
     ntf     =       2, ntb     =       2, igb     =       0, nsnb    =      25
     ipol    =       0, gbsa    =       0, iesp    =       0
     dielc   =   1.00000, cut     =   9.00000, intdiel =   1.00000

Frozen or restrained atoms:
     ibelly  =       0, ntr     =       0

Molecular dynamics:
     nstlim  =   1200000, nscm    =      1000, nrespa  =         1
     t       =   0.00000, dt      =   0.00100, vlimit  =  10.00000

Langevin dynamics temperature regulation:
     ig      =  218058
     temp0   = 300.00000, tempi   = 300.00000, gamma_ln=   1.00000

Pressure regulation:
     ntp     =       1
     pres0   =   1.00000, comp    =  44.60000, taup    =   1.00000

SHAKE:
     ntc     =       2, jfastw  =       0
     tol     =   0.00001

Ewald parameters:
     verbose =       0, ew_type =       0, nbflag  =       1, use_pme =       1
     vdwmeth =       1, eedmeth =       1, netfrc  =       1
     Box X =  100.003   Box Y =   97.647   Box Z =  100.107
     Alpha =   90.000   Beta  =   90.000   Gamma =   90.000
     NFFT1 =  108       NFFT2 =  100       NFFT3 =  108
     Cutoff=    9.000   Tol   =0.100E-04
     Ewald Coefficient =  0.30768
     Interpolation order =    4

--------------------------------------------------------------------------------
   3.  ATOMIC COORDINATES AND VELOCITIES
--------------------------------------------------------------------------------

default_name
 begin time read from input coords =    50.000 ps

 Number of triangulated 3-point waters found:        0

     Sum of charges from parm topology file =  -0.00060177
     Forcing neutrality...

--------------------------------------------------------------------------------
   4.  RESULTS
 NSTEP =     1000   TIME(PS) =      51.000  TEMP(K) =   298.68  PRESS =    -2.6
 Etot   =    103375.4365  EKtot   =     10690.8823  EPtot      =     92684.5542
 BOND   =      5103.2178  ANGLE   =     24970.1659  DIHED      =     56186.9105
 1-4 NB =     10581.8911  1-4 EEL =      5292.0604  VDWAALS    =     -7344.3545
 EELEC  =     -2105.3370  EHBOND  =         0.0000  RESTRAINT  =         0.0000
 EKCMT  =       143.6858  VIRIAL  =       198.2993  VOLUME     =    975895.9528
                                                    Density    =         0.2128
 Ewald error estimate:   0.1262E-03
 ------------------------------------------------------------------------------

      A V E R A G E S   O V E R    1200 S T E P S

 NSTEP =  1200000   TIME(PS) =    1250.000  TEMP(K) =   299.96  PRESS =   -34.4
 Etot   =    100385.4116  EKtot   =     10736.5412  EPtot      =     89648.8704
 BOND   =      5156.6631  ANGLE   =     24995.3099  DIHED      =     56303.0650
 1-4 NB =     10650.7962  1-4 EEL =      5295.6147  VDWAALS    =    -10607.5787
 EELEC  =     -2144.9998  EHBOND  =         0.0000  RESTRAINT  =         0.0000
 EKCMT  =       136.2242  VIRIAL  =       459.7188  VOLUME     =    331058.8747
                                                    Density    =         0.9499
 Ewald error estimate:   0.1173E-03
 ------------------------------------------------------------------------------

      R M S  F L U C T U A T I O N S

 NSTEP =  1200000   TIME(PS) =    1250.000  TEMP(K) =     2.24  PRESS =   111.9
 Etot   =      1343.1719  EKtot   =        80.0914  EPtot      =      1346.8615
 BOND   =        61.1264  ANGLE   =        90.2324  DIHED      =        68.8966
 1-4 NB =        40.1916  1-4 EEL =         6.0632  VDWAALS    =      1431.3142
 EELEC  =        20.2573  EHBOND  =         0.0000  RESTRAINT  =         0.0000
 EKCMT  =         9.3440  VIRIAL  =       586.8344  VOLUME     =    256998.3835
                                                    Density    =         0.4394
 Ewald error estimate:   0.8447E-04
 ------------------------------------------------------------------------------
