-------------------------------------------------------
          Amber 22 PMEMD                              2022
          -------------------------------------------------------

  [-O]verwriting output

File Assignments:

 Here is the input file:

NPT eq
 &cntrl
   igb = 0, imin = 0, ntx = 5, irest = 1,
   ntb = 2,
   cut = 9,
   ntpr = 1000, ntwx = 1000, ntwr = 1000,
   nstlim = 200000,
   dt = 0.001,
   ntc = 2, ntf = 2, iwrap = 1,
   ntt = 3, gamma_ln=1.0,
   tempi = 300.0, temp0 = 300.0,
   ntp = 1, tautp = 0.5,
   ig = -1, vlimit = 10.0,
   nmropt = 0,
   ipol   = 0,
   restraintmask = ':1',
 /

Note: ig = -1. Setting random seed to   104006 based on wallclock time in
      microseconds and disabling the synchronization of random numbers
      between tasks to improve performance.

--------------------------------------------------------------------------------
   1.  RESOURCE   USE:
--------------------------------------------------------------------------------

 getting box info from netcdf restart file
 NATOM  =   35307 NTYPES =       9 NBONH =   21668 MBONA  =   13679
 NTHETH =   54140 MTHETA =   13810 NPHIH =   86707 MPHIA  =   24929
 NHPARM =       0 NPARM  =       0 NNB   =  182208 NRES   =    2701
 NBONA  =   13679 NTHETA =   13810 NPHIA =   24929 NUMBND =      39
 NUMANG =      92 NPTRA  =      27 NATYP =      19 NPHB   =       0
 IFBOX  =       1 NMXRS  =     207 IFCAP =       0 NEXTRA =       0
 NCOPY  =       0

     BOX TYPE: RECTILINEAR

--------------------------------------------------------------------------------
   2.  CONTROL  DATA  FOR  THE  RUN
--------------------------------------------------------------------------------

default_name

General flags:
     imin    =       0, nmropt  =       0

Nature and format of input:
     ntx     =       5, irest   =       1, ntrx    =       1

Nature and format of output:
     ntxo    =       2, ntpr    =    1000, ntrx    =       1, ntwr    =    1000
     iwrap   =       1, ntwx    =    1000, ntwv    =       0, ntwe    =       0
     ioutfm  =       1, ntwprt  =       0, idecomp =       0, rbornstat=      0

Potential function:
     ntf     =       2, ntb     =       2, igb     =       0, nsnb    =      25
     ipol    =       0, gbsa    =       0, iesp    =       0
     dielc   =   1.00000, cut     =   9.00000, intdiel =   1.00000

Frozen or restrained atoms:
     ibelly  =       0, ntr     =       0

Molecular dynamics:
     nstlim  =    200000, nscm    =      1000, nrespa  =         1
     t       =   0.00000, dt      =   0.00100, vlimit  =  10.00000

Langevin dynamics temperature regulation:
     ig      =  104006
     temp0   = 300.00000, tempi   = 300.00000, gamma_ln=   1.00000

Pressure regulation:
     ntp     =       1
     pres0   =   1.00000, comp    =  44.60000, taup    =   1.00000

SHAKE:
     ntc     =       2, jfastw  =       0
     tol     =   0.00001

Ewald parameters:
     verbose =       0, ew_type =       0, nbflag  =       1, use_pme =       1
     vdwmeth =       1, eedmeth =       1, netfrc  =       1
     Box X =  100.156   Box Y =  100.116   Box Z =  100.165
     Alpha =   90.000   Beta  =   90.000   Gamma =   90.000
     NFFT1 =  108       NFFT2 =  108       NFFT3 =  108
     Cutoff=    9.000   Tol   =0.100E-04
     Ewald Coefficient =  0.30768
     Interpolation order =    4

--------------------------------------------------------------------------------
   3.  ATOMIC COORDINATES AND VELOCITIES
--------------------------------------------------------------------------------

default_name
 begin time read from input coords =    50.000 ps

 Number of triangulated 3-point waters found:        0

     Sum of charges from parm topology file =   0.00000500
     Forcing neutrality...

--------------------------------------------------------------------------------
   4.  RESULTS
 NSTEP =     1000   TIME(PS) =      51.000  TEMP(K) =   300.94  PRESS =  -132.8
 Etot   =     62199.4522  EKtot   =     25192.4684  EPtot      =     37006.9838
 BOND   =      4131.0868  ANGLE   =     24080.3914  DIHED      =     22218.4066
 1-4 NB =       781.5086  1-4 EEL =     -6451.1131  VDWAALS    =    -12571.7178
 EELEC  =      4818.4213  EHBOND  =         0.0000  RESTRAINT  =         0.0000
 EKCMT  =      2407.6370  VIRIAL  =      5271.8687  VOLUME     =    999159.3444
                                                    Density    =         0.3265
 Ewald error estimate:   0.4233E-03
 ------------------------------------------------------------------------------

      A V E R A G E S   O V E R     200 S T E P S

 NSTEP =   200000   TIME(PS) =     250.000  TEMP(K) =   300.24  PRESS =  -107.7
 Etot   =     56702.3374  EKtot   =     25134.0540  EPtot      =     31568.2835
 BOND   =      4052.8948  ANGLE   =     24101.2027  DIHED      =     22197.5355
 1-4 NB =       795.3687  1-4 EEL =     -6445.4783  VDWAALS    =    -17480.6399
 EELEC  =      4347.3999  EHBOND  =         0.0000  RESTRAINT  =         0.0000
 EKCMT  =      2423.4640  VIRIAL  =      3907.1856  VOLUME     =    537027.6451
                                                    Density    =         0.6907
 Ewald error estimate:   0.2856E-03
 ------------------------------------------------------------------------------

      R M S  F L U C T U A T I O N S

 NSTEP =   200000   TIME(PS) =     250.000  TEMP(K) =     1.44  PRESS =   126.7
 Etot   =      2907.4131  EKtot   =       120.2822  EPtot      =      2879.8731
 BOND   =        50.6806  ANGLE   =       107.9996  DIHED      =        58.1366
 1-4 NB =        12.9954  1-4 EEL =         9.2891  VDWAALS    =      2638.6969
 EELEC  =       242.7112  EHBOND  =         0.0000  RESTRAINT  =         0.0000
 EKCMT  =        38.2166  VIRIAL  =      1539.4060  VOLUME     =    210293.0298
                                                    Density    =         0.2179
 Ewald error estimate:   0.1491E-03
 ------------------------------------------------------------------------------
