-------------------------------------------------------
          Amber 22 PMEMD                              2022
          -------------------------------------------------------

  [-O]verwriting output

File Assignments:

 Here is the input file:

running a equilibriation run  on  NVT trajectory
 &cntrl
   igb = 0, imin = 0, ntx = 5, irest = 1,
   ntb = 1, cut = 9,
   ntpr = 1000, ntwx = 1000, ntwr = 20000,
   nstlim = 1000000, dt = 0.001,
   ntc = 2, ntf = 2, iwrap = 1,
   ntt = 3, gamma_ln=1.0,
   tempi = 300.0, temp0 = 300.0,
   tautp = 0.5, ig = -1, vlimit = 10.0,
   nmropt = 0,
   ipol   = 0,
   restraintmask = ':1',
 /

Note: ig = -1. Setting random seed to   414694 based on wallclock time in
      microseconds.

--------------------------------------------------------------------------------
   1.  RESOURCE   USE:
--------------------------------------------------------------------------------

 getting box info from netcdf restart file
 NATOM  =   35307 NTYPES =       9 NBONH =   21668 MBONA  =   13679
 NTHETH =   54140 MTHETA =   13810 NPHIH =   86707 MPHIA  =   24929
 NHPARM =       0 NPARM  =       0 NNB   =  182208 NRES   =    2701
 NBONA  =   13679 NTHETA =   13810 NPHIA =   24929 NUMBND =      39
 NUMANG =      92 NPTRA  =      27 NATYP =      19 NPHB   =       0
 IFBOX  =       1 NMXRS  =     207 IFCAP =       0 NEXTRA =       0
 NCOPY  =       0

     BOX TYPE: RECTILINEAR

--------------------------------------------------------------------------------
   2.  CONTROL  DATA  FOR  THE  RUN
--------------------------------------------------------------------------------

default_name

General flags:
     imin    =       0, nmropt  =       0

Nature and format of input:
     ntx     =       5, irest   =       1, ntrx    =       1

Nature and format of output:
     ntxo    =       2, ntpr    =    1000, ntrx    =       1, ntwr    =   20000
     iwrap   =       1, ntwx    =    1000, ntwv    =       0, ntwe    =       0
     ioutfm  =       1, ntwprt  =       0, idecomp =       0, rbornstat=      0

Potential function:
     ntf     =       2, ntb     =       1, igb     =       0, nsnb    =      25
     ipol    =       0, gbsa    =       0, iesp    =       0
     dielc   =   1.00000, cut     =   9.00000, intdiel =   1.00000

Frozen or restrained atoms:
     ibelly  =       0, ntr     =       0

Molecular dynamics:
     nstlim  =   1000000, nscm    =      1000, nrespa  =         1
     t       =   0.00000, dt      =   0.00100, vlimit  =  10.00000

Langevin dynamics temperature regulation:
     ig      =  414694
     temp0   = 300.00000, tempi   = 300.00000, gamma_ln=   1.00000

SHAKE:
     ntc     =       2, jfastw  =       0
     tol     =   0.00001

Ewald parameters:
     verbose =       0, ew_type =       0, nbflag  =       1, use_pme =       1
     vdwmeth =       1, eedmeth =       1, netfrc  =       1
     Box X =   71.575   Box Y =   71.547   Box Z =   71.582
     Alpha =   90.000   Beta  =   90.000   Gamma =   90.000
     NFFT1 =   72       NFFT2 =   72       NFFT3 =   72
     Cutoff=    9.000   Tol   =0.100E-04
     Ewald Coefficient =  0.30768
     Interpolation order =    4

--------------------------------------------------------------------------------
   3.  ATOMIC COORDINATES AND VELOCITIES
--------------------------------------------------------------------------------

default_name
 begin time read from input coords =   250.000 ps

 Number of triangulated 3-point waters found:        0

     Sum of charges from parm topology file =   0.00000500
     Forcing neutrality...

--------------------------------------------------------------------------------
   4.  RESULTS
 NSTEP =     1000   TIME(PS) =     251.000  TEMP(K) =   300.53  PRESS =     0.0
 Etot   =     53945.0779  EKtot   =     25158.7246  EPtot      =     28786.3533
 BOND   =      4034.8361  ANGLE   =     24007.4565  DIHED      =     22190.6065
 1-4 NB =       793.9719  1-4 EEL =     -6449.7270  VDWAALS    =    -19945.5352
 EELEC  =      4154.7445  EHBOND  =         0.0000  RESTRAINT  =         0.0000
 ------------------------------------------------------------------------------

      A V E R A G E S   O V E R    1000 S T E P S

 NSTEP =  1000000   TIME(PS) =    1250.000  TEMP(K) =   300.00  PRESS =     0.0
 Etot   =     53972.6742  EKtot   =     25114.0817  EPtot      =     28858.5925
 BOND   =      4057.5820  ANGLE   =     24082.1890  DIHED      =     22199.8358
 1-4 NB =       800.1903  1-4 EEL =     -6445.1936  VDWAALS    =    -19947.8938
 EELEC  =      4111.8828  EHBOND  =         0.0000  RESTRAINT  =         0.0000
 ------------------------------------------------------------------------------

      R M S  F L U C T U A T I O N S

 NSTEP =  1000000   TIME(PS) =    1250.000  TEMP(K) =     1.43  PRESS =     0.0
 Etot   =       172.1047  EKtot   =       119.8801  EPtot      =       119.7487
 BOND   =        50.5895  ANGLE   =       112.6901  DIHED      =        61.5583
 1-4 NB =        11.0113  1-4 EEL =         8.8728  VDWAALS    =        38.9379
 EELEC  =        25.9129  EHBOND  =         0.0000  RESTRAINT  =         0.0000
 ------------------------------------------------------------------------------
