-------------------------------------------------------
          Amber 22 PMEMD                              2022
          -------------------------------------------------------

  [-O]verwriting output

File Assignments:

 Here is the input file:

running sampling run  on  NVT trajectory
 &cntrl
   igb = 0, imin = 0, ntx = 5, irest = 1,
   ntb = 1, cut = 9,
   ntpr = 1000, ntwx = 1000, ntwr = 1000,
   nstlim = 150000, dt = 0.001,
   ntc = 2, ntf = 2, iwrap = 1,
   ntt = 3, gamma_ln=1.0,
   tempi = 300.0, temp0 = 300.0,
   tautp = 0.5, ig = -1, vlimit = 10.0,
   nmropt = 0,
   ipol   = 0,
   ntr = 1,
   restraint_wt = 100,
   restraintmask = ':1',
 /

Note: ig = -1. Setting random seed to   454811 based on wallclock time in
      microseconds.

--------------------------------------------------------------------------------
   1.  RESOURCE   USE:
--------------------------------------------------------------------------------

 getting box info from netcdf restart file
 NATOM  =   35307 NTYPES =       9 NBONH =   21668 MBONA  =   13679
 NTHETH =   54140 MTHETA =   13810 NPHIH =   86707 MPHIA  =   24929
 NHPARM =       0 NPARM  =       0 NNB   =  182208 NRES   =    2701
 NBONA  =   13679 NTHETA =   13810 NPHIA =   24929 NUMBND =      39
 NUMANG =      92 NPTRA  =      27 NATYP =      19 NPHB   =       0
 IFBOX  =       1 NMXRS  =     207 IFCAP =       0 NEXTRA =       0
 NCOPY  =       0

     BOX TYPE: RECTILINEAR

--------------------------------------------------------------------------------
   2.  CONTROL  DATA  FOR  THE  RUN
--------------------------------------------------------------------------------

default_name

General flags:
     imin    =       0, nmropt  =       0

Nature and format of input:
     ntx     =       5, irest   =       1, ntrx    =       1

Nature and format of output:
     ntxo    =       2, ntpr    =    1000, ntrx    =       1, ntwr    =    1000
     iwrap   =       1, ntwx    =    1000, ntwv    =       0, ntwe    =       0
     ioutfm  =       1, ntwprt  =       0, idecomp =       0, rbornstat=      0

Potential function:
     ntf     =       2, ntb     =       1, igb     =       0, nsnb    =      25
     ipol    =       0, gbsa    =       0, iesp    =       0
     dielc   =   1.00000, cut     =   9.00000, intdiel =   1.00000

Frozen or restrained atoms:
     ibelly  =       0, ntr     =       1
     restraint_wt = 100.00000

Molecular dynamics:
     nstlim  =    150000, nscm    =         0, nrespa  =         1
     t       =   0.00000, dt      =   0.00100, vlimit  =  10.00000

Langevin dynamics temperature regulation:
     ig      =  454811
     temp0   = 300.00000, tempi   = 300.00000, gamma_ln=   1.00000

SHAKE:
     ntc     =       2, jfastw  =       0
     tol     =   0.00001

Ewald parameters:
     verbose =       0, ew_type =       0, nbflag  =       1, use_pme =       1
     vdwmeth =       1, eedmeth =       1, netfrc  =       1
     Box X =   71.575   Box Y =   71.547   Box Z =   71.582
     Alpha =   90.000   Beta  =   90.000   Gamma =   90.000
     NFFT1 =   72       NFFT2 =   72       NFFT3 =   72
     Cutoff=    9.000   Tol   =0.100E-04
     Ewald Coefficient =  0.30768
     Interpolation order =    4

    LOADING THE CONSTRAINED ATOMS AS GROUPS

   5.  REFERENCE ATOM COORDINATES

  default_name
     Mask :1; matches   207 atoms

--------------------------------------------------------------------------------
   3.  ATOMIC COORDINATES AND VELOCITIES
--------------------------------------------------------------------------------

default_name
 begin time read from input coords =  1250.000 ps

 Number of triangulated 3-point waters found:        0

     Sum of charges from parm topology file =   0.00000500
     Forcing neutrality...

--------------------------------------------------------------------------------
   4.  RESULTS
 NSTEP =     1000   TIME(PS) =    1251.000  TEMP(K) =   300.75  PRESS =     0.0
 Etot   =     54005.4625  EKtot   =     25177.1270  EPtot      =     28828.3356
 BOND   =      4039.0536  ANGLE   =     24062.2927  DIHED      =     22055.2107
 1-4 NB =       799.7658  1-4 EEL =     -6446.3231  VDWAALS    =    -19910.4881
 EELEC  =      4139.5272  EHBOND  =         0.0000  RESTRAINT  =        89.2967
 EAMBER (non-restraint)  =     28739.0389
 ------------------------------------------------------------------------------

      A V E R A G E S   O V E R     150 S T E P S

 NSTEP =   150000   TIME(PS) =    1400.000  TEMP(K) =   299.98  PRESS =     0.0
 Etot   =     54041.4560  EKtot   =     25112.1408  EPtot      =     28929.3152
 BOND   =      4048.6065  ANGLE   =     24075.1985  DIHED      =     22186.4898
 1-4 NB =       799.8607  1-4 EEL =     -6448.8860  VDWAALS    =    -19942.9123
 EELEC  =      4115.5192  EHBOND  =         0.0000  RESTRAINT  =        95.4387
 EAMBER (non-restraint)  =     28833.8764
 ------------------------------------------------------------------------------

      R M S  F L U C T U A T I O N S

 NSTEP =   150000   TIME(PS) =    1400.000  TEMP(K) =     1.45  PRESS =     0.0
 Etot   =       169.0303  EKtot   =       121.3191  EPtot      =       115.5676
 BOND   =        49.0693  ANGLE   =       107.0053  DIHED      =        67.1950
 1-4 NB =        10.1563  1-4 EEL =         7.4324  VDWAALS    =        39.7905
 EELEC  =        27.4241  EHBOND  =         0.0000  RESTRAINT  =         6.3660
 EAMBER (non-restraint)  =       109.2016
 ------------------------------------------------------------------------------
