-------------------------------------------------------
          Amber 22 PMEMD                              2022
          -------------------------------------------------------

  [-O]verwriting output

File Assignments:

 Here is the input file:

running trajectory NVE relaxation for  5e4 steps
 &cntrl
   igb = 0, imin = 0, ntx = 5, irest = 1,
   ntb = 1, cut = 9,
   ntpr = 1000, ntwx = 1000, ntwr = 1000,
   nstlim = 50000, dt = 0.001,
   ntc = 2, ntf = 2, iwrap = 1,
   ntt = 0,
   ioutfm=1,
   nmropt = 0,
   ipol   = 0,
   ntr = 1,
   restraint_wt = 100,
   restraintmask = ':1',
 /

Note: ig = -1. Setting random seed to   230074 based on wallclock time in
      microseconds.

--------------------------------------------------------------------------------
   1.  RESOURCE   USE:
--------------------------------------------------------------------------------

 getting box info from netcdf restart file
 NATOM  =   35307 NTYPES =       9 NBONH =   21668 MBONA  =   13679
 NTHETH =   54140 MTHETA =   13810 NPHIH =   86707 MPHIA  =   24929
 NHPARM =       0 NPARM  =       0 NNB   =  182208 NRES   =    2701
 NBONA  =   13679 NTHETA =   13810 NPHIA =   24929 NUMBND =      39
 NUMANG =      92 NPTRA  =      27 NATYP =      19 NPHB   =       0
 IFBOX  =       1 NMXRS  =     207 IFCAP =       0 NEXTRA =       0
 NCOPY  =       0

     BOX TYPE: RECTILINEAR

--------------------------------------------------------------------------------
   2.  CONTROL  DATA  FOR  THE  RUN
--------------------------------------------------------------------------------

default_name

General flags:
     imin    =       0, nmropt  =       0

Nature and format of input:
     ntx     =       5, irest   =       1, ntrx    =       1

Nature and format of output:
     ntxo    =       2, ntpr    =    1000, ntrx    =       1, ntwr    =    1000
     iwrap   =       1, ntwx    =    1000, ntwv    =       0, ntwe    =       0
     ioutfm  =       1, ntwprt  =       0, idecomp =       0, rbornstat=      0

Potential function:
     ntf     =       2, ntb     =       1, igb     =       0, nsnb    =      25
     ipol    =       0, gbsa    =       0, iesp    =       0
     dielc   =   1.00000, cut     =   9.00000, intdiel =   1.00000

Frozen or restrained atoms:
     ibelly  =       0, ntr     =       1
     restraint_wt = 100.00000

Molecular dynamics:
     nstlim  =     50000, nscm    =         0, nrespa  =         1
     t       =   0.00000, dt      =   0.00100, vlimit  =  -1.00000

SHAKE:
     ntc     =       2, jfastw  =       0
     tol     =   0.00001

Ewald parameters:
     verbose =       0, ew_type =       0, nbflag  =       1, use_pme =       1
     vdwmeth =       1, eedmeth =       1, netfrc  =       1
     Box X =   71.575   Box Y =   71.547   Box Z =   71.582
     Alpha =   90.000   Beta  =   90.000   Gamma =   90.000
     NFFT1 =   72       NFFT2 =   72       NFFT3 =   72
     Cutoff=    9.000   Tol   =0.100E-04
     Ewald Coefficient =  0.30768
     Interpolation order =    4

    LOADING THE CONSTRAINED ATOMS AS GROUPS

   5.  REFERENCE ATOM COORDINATES

  default_name
     Mask :1; matches   207 atoms

--------------------------------------------------------------------------------
   3.  ATOMIC COORDINATES AND VELOCITIES
--------------------------------------------------------------------------------

default_name
 begin time read from input coords =  1400.000 ps

 Number of triangulated 3-point waters found:        0

     Sum of charges from parm topology file =   0.00000500
     Forcing neutrality...

--------------------------------------------------------------------------------
   4.  RESULTS
 NSTEP =     1000   TIME(PS) =    1401.000  TEMP(K) =   300.70  PRESS =     0.0
 Etot   =     54226.3849  EKtot   =     25172.8926  EPtot      =     29053.4923
 BOND   =      4094.0472  ANGLE   =     24296.0520  DIHED      =     22110.2625
 1-4 NB =       821.0669  1-4 EEL =     -6458.1172  VDWAALS    =    -19999.9026
 EELEC  =      4129.7207  EHBOND  =         0.0000  RESTRAINT  =        60.3627
 EAMBER (non-restraint)  =     28993.1296
 ------------------------------------------------------------------------------

      A V E R A G E S   O V E R      50 S T E P S

 NSTEP =    50000   TIME(PS) =    1450.000  TEMP(K) =   301.20  PRESS =     0.0
 Etot   =     54211.3316  EKtot   =     25214.1939  EPtot      =     28997.1377
 BOND   =      4055.9514  ANGLE   =     24123.6235  DIHED      =     22191.8393
 1-4 NB =       803.3162  1-4 EEL =     -6450.4327  VDWAALS    =    -19927.1225
 EELEC  =      4128.0456  EHBOND  =         0.0000  RESTRAINT  =        71.9171
 EAMBER (non-restraint)  =     28925.2207
 ------------------------------------------------------------------------------

      R M S  F L U C T U A T I O N S

 NSTEP =    50000   TIME(PS) =    1450.000  TEMP(K) =     1.17  PRESS =     0.0
 Etot   =         8.7852  EKtot   =        98.1831  EPtot      =        99.0712
 BOND   =        56.8427  ANGLE   =       105.7202  DIHED      =        58.5525
 1-4 NB =        11.6072  1-4 EEL =         7.2178  VDWAALS    =        36.2671
 EELEC  =        26.5656  EHBOND  =         0.0000  RESTRAINT  =         4.9416
 EAMBER (non-restraint)  =        94.1296
 ------------------------------------------------------------------------------
